
data_
_chemical_name_mineral ?CsRHO_dry?
_cell_length_a  14.59726(15)
_cell_length_b  14.59726(15)
_cell_length_c  14.59726(15)
_cell_angle_alpha 90
_cell_angle_beta  90
_cell_angle_gamma 90
_cell_volume 3110.383(97)
_symmetry_space_group_name_H-M I-43m
loop_
_symmetry_equiv_pos_as_xyz
	'-x, -y, z'
	'-x, -z, y'
	'-x, z, -y'
	'-x, y, -z'
	'-x+1/2, -y+1/2, z+1/2'
	'-x+1/2, -z+1/2, y+1/2'
	'-x+1/2, z+1/2, -y+1/2'
	'-x+1/2, y+1/2, -z+1/2'
	'-y, -x, z'
	'-y, -z, x'
	'-y, z, -x'
	'-y, x, -z'
	'-y+1/2, -x+1/2, z+1/2'
	'-y+1/2, -z+1/2, x+1/2'
	'-y+1/2, z+1/2, -x+1/2'
	'-y+1/2, x+1/2, -z+1/2'
	'-z, -x, y'
	'-z, -y, x'
	'-z, y, -x'
	'-z, x, -y'
	'-z+1/2, -x+1/2, y+1/2'
	'-z+1/2, -y+1/2, x+1/2'
	'-z+1/2, y+1/2, -x+1/2'
	'-z+1/2, x+1/2, -y+1/2'
	'z, -x, -y'
	'z, -y, -x'
	'z, y, x'
	'z, x, y'
	'z+1/2, -x+1/2, -y+1/2'
	'z+1/2, -y+1/2, -x+1/2'
	'z+1/2, y+1/2, x+1/2'
	'z+1/2, x+1/2, y+1/2'
	'y, -x, -z'
	'y, -z, -x'
	'y, z, x'
	'y, x, z'
	'y+1/2, -x+1/2, -z+1/2'
	'y+1/2, -z+1/2, -x+1/2'
	'y+1/2, z+1/2, x+1/2'
	'y+1/2, x+1/2, z+1/2'
	'x, -y, -z'
	'x, -z, -y'
	'x, z, y'
	'x, y, z'
	'x+1/2, -y+1/2, -z+1/2'
	'x+1/2, -z+1/2, -y+1/2'
	'x+1/2, z+1/2, y+1/2'
	'x+1/2, y+1/2, z+1/2'
loop_
_atom_site_label
_atom_site_type_symbol
_atom_site_symmetry_multiplicity
_atom_site_fract_x
_atom_site_fract_y
_atom_site_fract_z
_atom_site_occupancy
_atom_site_B_iso_or_equiv
Si1 Si+4   0 0.2693495(85) 0.1197552(83) 0.4189161(88) 0.81263(35) 1.985(58)
Al1 Al+3   0 0.2693495(85) 0.1197552(83) 0.4189161(88) 0.18737(35) 1.985(58)
O1 O-2   0 0.0286704(88) 0.216688(14) 0.385380(14) 1 2.084(86)
O2 O-2   0 0.208716(19) 0.208716(19) 0.394197(21) 1 2.084(86)
O3 O-2   0 0.132472(17) 0.132472(17) 0.626439(26) 1 2.084(86)
#Cs1 Cs+1   0 0 0 0.5 1 4.774(52)
Cs2 Cs+1   0 0.17556(14) 0.17556(14) 0.17556(14) 0.3742(21) 4.774(52)